%%%%%%%%%%%%%%%%%%%%%%%%%%%%%%%%%%%%%%%%%%%%%%%%%%%%%%%%%%%%%%%%%%%%%%%%%%%%%%%%%
%                                                                               %
% SU2 configuration file                                                        %
% Case description: Hypersonic wedge with CHT coupling                          %
% Author: M. Gains, C. vdH                                                      %
% Institution: The Unverisity of Melbourne                                      %
% Date: August 8, 2019                                                          %
% File Version 7.1.1 "Blackbird"                                                %
%                                                                               %
%%%%%%%%%%%%%%%%%%%%%%%%%%%%%%%%%%%%%%%%%%%%%%%%%%%%%%%%%%%%%%%%%%%%%%%%%%%%%%%%%
%
% Physical governing equations (EULER, NAVIER_STOKES,
%                               WAVE_EQUATION, HEAT_EQUATION, FEM_ELASTICITY,
%                               POISSON_EQUATION)             
SOLVER= MULTIPHYSICS
%
% Mathematical problem (DIRECT, CONTINUOUS_ADJOINT, DISCRETE_ADJOINT)
MATH_PROBLEM= DIRECT
%
%
CONFIG_LIST = (flow_wedge.cfg, solid_wedge.cfg)
%
%
MARKER_ZONE_INTERFACE= (nose_outer, nose_inner)
%
%
MARKER_CHT_INTERFACE= (nose_outer, nose_inner)
%
%
CHT_COUPLING_METHOD= DIRECT_TEMPERATURE_ROBIN_HEATFLUX
%
%
TIME_DOMAIN= NO
%
% Number of total iterations (15000 for suitable results)
OUTER_ITER= 4000
%
% Mesh input file
MESH_FILENAME= ../../meshes/INP_MESH
%
% Mesh input file format (SU2, CGNS, NETCDF_ASCII)
MESH_FORMAT= SU2
%
% Output file format
OUTPUT_FILES= (RESTART, PARAVIEW_MULTIBLOCK)



